data/ACTIVSg2000.aux
DATA (PWCaseInformation, [Selected])
{
"NO "
   <SUBDATA PWCaseHeader>
     //Case Description
     This is a synthetic power system model that does NOT represent the actual grid. It was developed as part of the US ARPA-E Grid 
     Data research project and contains no CEII.
     Reference: A.B. Birchfield, T. Xu, K.M. Gegner, K.S. Shetye, and T.J. Overbye, "Grid Structural Characteristics as Validation 
     Criteria for Synthetic Networks," IEEE Transactions on Power Systems, vol. 32, no. 4, pp. 3258-3265, July 2017.
     
     Case Version: Feb. 3, 2018
   </SUBDATA>
}
DATA (Owner, [OwnerNum,OwnerName,DataMaintainerAssign])
{
       1 "1" ""
}
DATA (Substation, [SubNum,SubName,SubID,Latitude,Longitude,DataMaintainerAssign,GICSubGroundOhms,
   GICUsedSubGroundOhms])
{
       1 "ODESSA 2" "1" 31.90673599999999870000 -102.26234800000000300000 ""     0.090000     0.090000
       2 "PRESIDIO 2" "2" 29.88804599999999920000 -104.51913899999999600000 ""     0.145000     0.145000
       3 "O DONNELL 1" "3" 32.92638900000000040000 -101.64777800000000200000 ""     0.111000     0.111000
       4 "BIG SPRING 5" "4" 32.20750000000000310000 -101.38833300000000300000 ""     0.290000     0.290000
       5 "VAN HORN" "5" 31.09347999999999960000 -104.62451400000000500000 ""     0.350000     0.350000
       6 "IRAAN 2" "6" 30.93146700000000140000 -102.20143299999999400000 ""     0.014000     0.014000
       7 "PRESIDIO 1" "7" 29.60000000000000140000 -104.29999999999999700000 ""     0.116000     0.116000
       8 "SANDERSON" "8" 30.02806700000000010000 -101.97046100000000000000 ""     0.400000     0.400000
       9 "MONAHANS 2" "9" 31.48458600000000020000 -103.16104599999999900000 ""     0.280000     0.280000
      10 "GRANDFALLS" "10" 31.16952300000000160000 -103.08513399999999600000 ""     0.940000     0.940000
      11 "MARFA" "11" 30.28529599999999890000 -104.00576100000000700000 ""     0.069000     0.069000
      12 "GARDEN CITY" "12" 31.76307500000000060000 -101.50177499999999500000 ""     0.094000     0.094000
      13 "ODESSA 4" "13" 31.72517099999999960000 -102.41360699999999900000 ""     0.114000     0.114000
      14 "NOTREES" "14" 31.79917100000000120000 -102.63293299999999400000 ""     0.590000     0.590000
      15 "MIDLAND 4" "15" 31.97942700000000120000 -102.13236600000000500000 ""     2.350000     2.350000
      16 "BIG SPRING 1" "16" 31.99249999999999970000 -101.11669999999999400000 ""     0.171000     0.171000
      17 "O DONNELL 2" "17" 32.92901400000000220000 -101.57861699999999400000 ""     0.136000     0.136000
      18 "ODESSA 6" "18" 31.96931199999999860000 -102.63088200000000000000 ""     0.079000     0.079000
      19 "BIG SPRINGS" "19" 32.03900000000000150000 -101.21999999999999900000 ""     0.910000     0.910000
      20 "MIDLAND 2" "20" 32.32167299999999700000 -102.04229800000000200000 ""     0.113000     0.113000
      21 "COAHOMA" "21" 32.87951100000000080000 -101.24678400000000500000 ""     0.220000     0.220000
      22 "MIDLAND 3" "22" 31.99238400000000130000 -102.08146399999999700000 ""     0.230000     0.230000
      23 "ALPINE" "23" 29.80209400000000030000 -103.22235999999999500000 ""     0.290000     0.290000
      24 "FORT DAVIS" "24" 31.00496899999999910000 -103.75906500000000700000 ""     0.610000     0.610000
      25 "MCCAMEY 1" "25" 31.20919999999999920000 -102.24169999999999400000 ""     0.440000     0.440000
      26 "BIG SPRING 4" "26" 31.99144199999999930000 -101.30263700000000400000 ""     0.079000     0.079000
      27 "CRANE" "27" 31.18688799999999970000 -102.59625300000000400000 ""     0.230000     0.230000
      28 "ODESSA 5" "28" 31.79915799999999850000 -102.47409000000000400000 ""     2.510000     2.510000
      29 "FORT STOCKTON 1" "29" 30.77257499999999980000 -102.50580800000000200000 ""     0.380000     0.380000
      30 "ANDREWS" "30" 32.33572900000000060000 -102.69730300000000500000 ""     1.690000     1.690000
      31 "FORSAN" "31" 32.14079999999999870000 -101.39860000000000200000 ""     1.560000     1.560000
      32 "BIG LAKE" "32" 31.27255100000000000000 -101.17278299999999600000 ""     0.010000     0.010000
      33 "MIDLAND 5" "33" 32.05360400000000000000 -102.20166000000000400000 ""     0.078000     0.078000
      34 "OZONA" "34" 30.57561799999999860000 -101.33123899999999600000 ""     0.330000     0.330000
      35 "MONAHANS 1" "35" 31.58389999999999990000 -102.96330000000000400000 ""     0.132000     0.132000
      36 "STANTON" "36" 32.48981799999999960000 -101.75448799999999500000 ""     0.490000     0.490000
      37 "ODONNELL" "37" 32.92701000000000280000 -101.76441400000000200000 ""     0.410000     0.410000
      38 "LENORAH" "38" 32.23530000000000230000 -101.83669999999999300000 ""     0.188000     0.188000
      39 "IRAAN 3" "39" 30.88469999999999870000 -101.92080000000000000000 ""     0.094000     0.094000
      40 "BIG SPRING 6" "40" 32.27318199999999850000 -101.42243600000000500000 ""     0.164000     0.164000
      41 "ODESSA 3" "41" 32.00112899999999880000 -102.31242299999999600000 ""     0.530000     0.530000
      42 "BIG SPRING 3" "42" 32.10082299999999830000 -101.45138500000000200000 ""     0.400000     0.400000
      43 "BIG SPRING 7" "43" 32.10291099999999890000 -101.36543399999999300000 ""     0.430000     0.430000
      44 "MIDLAND 1" "44" 31.51762799999999840000 -101.91800700000000300000 ""     0.320000     0.320000
      45 "IRAAN 1" "45" 30.91779999999999970000 -102.08669999999999300000 ""     0.118000     0.118000
      46 "ODESSA 1" "46" 31.84029999999999920000 -102.32640000000000700000 ""     0.028000     0.028000
      47 "FORT STOCKTON 2" "47" 30.80727200000000110000 -102.35562799999999600000 ""     0.240000     0.240000
      48 "FORT STOCKTON 3" "48" 30.74745899999999920000 -102.79079199999999600000 ""     0.280000     0.280000
      49 "BIG SPRING 2" "49" 31.93609999999999970000 -101.29829999999999800000 ""     0.178000     0.178000
      50 "KERMIT" "50" 31.69625100000000020000 -103.13899200000000200000 ""     0.113000     0.113000
      51 "PECOS" "51" 31.80354699999999820000 -103.59991399999999800000 ""     3.270000     3.270000
      52 "SHEFFIELD" "52" 30.59699799999999920000 -101.78453000000000400000 ""     0.066000     0.066000
      53 "MCCAMEY 2" "53" 31.13919999999999890000 -102.22530000000000400000 ""     0.154000     0.154000
      54 "LAMESA" "54" 32.92964800000000030000 -102.13350599999999700000 ""     0.850000     0.850000
      55 "GOLDSMITH" "55" 31.99500000000000100000 -102.82833300000000100000 ""     2.180000     2.180000
      56 "RALLS 2" "56" 33.65867099999999820000 -101.53103699999999800000 ""     3.020000     3.020000
      57 "PARIS 3" "57" 33.68386900000000140000 -95.34473300000000510000 ""     0.066000     0.066000
      58 "SAVOY" "58" 33.62814300000000140000 -96.36760499999999750000 ""     0.062000     0.062000
      59 "HONEY GROVE" "59" 33.61516699999999960000 -95.90010900000000050000 ""     0.092000     0.092000
      60 "MEMPHIS" "60" 34.85725800000000160000 -100.51286799999999700000 ""     0.690000     0.690000
      61 "IOWA PARK" "61" 33.97329700000000230000 -98.72109600000000280000 ""     0.024000     0.024000
      62 "VERNON 2" "62" 33.89981300000000180000 -99.77349700000000610000 ""     1.950000     1.950000
      63 "PANHANDLE 2" "63" 35.23833299999999720000 -101.31083300000000200000 ""     0.400000     0.400000
      64 "CHILDRESS" "64" 34.44722600000000060000 -100.80984800000000200000 ""     1.180000     1.180000
      65 "FORESTBURG" "65" 33.47161700000000200000 -97.44518899999999920000 ""     0.370000     0.370000
      66 "SHERMAN 3" "66" 33.62762299999999980000 -96.76739399999999590000 ""     0.390000     0.390000
      67 "PANHANDLE 4" "67" 35.42750000000000200000 -101.25305600000000100000 ""     0.077000     0.077000
      68 "WICHITA FALLS 6" "68" 33.94378400000000080000 -98.52306400000000510000 ""     0.163000     0.163000
      69 "PARIS 2" "69" 33.69680000000000320000 -95.55769999999999700000 ""     0.240000     0.240000
      70 "WICHITA FALLS 4" "70" 33.86451499999999730000 -98.49104599999999720000 ""     3.260000     3.260000
      71 "WHEELER" "71" 35.83076299999999750000 -100.76590500000000400000 ""     0.064000     0.064000
      72 "DEPORT" "72" 33.48264600000000260000 -95.32008799999999840000 ""     0.260000     0.260000
      73 "WICHITA FALLS 3" "73" 34.00478300000000330000 -98.38875699999999820000 ""     0.260000     0.260000
      74 "SILVERTON" "74" 34.45747800000000180000 -101.28716099999999800000 ""     0.045000     0.045000
      75 "BONHAM" "75" 33.70831100000000190000 -96.24065400000000640000 ""     4.970000     4.970000
      76 "MATADOR" "76" 33.71068400000000050000 -100.38421700000000700000 ""     0.490000     0.490000
      77 "ARTHUR CITY" "77" 33.85786800000000340000 -95.64913699999999610000 ""     0.128000     0.128000
      78 "LEONARD" "78" 33.44144000000000010000 -96.17916300000000260000 ""     0.240000     0.240000
      79 "GORDONVILLE" "79" 33.83093199999999710000 -96.83976400000000240000 ""     0.172000     0.172000
      80 "KNOX CITY" "80" 33.43183700000000160000 -99.85366700000000150000 ""     7.800000     7.800000
      81 "WICHITA FALLS 7" "81" 33.89494100000000290000 -98.54367000000000590000 ""     0.970000     0.970000
      82 "LINDSAY" "82" 33.61585500000000340000 -97.31083399999999980000 ""     0.091000     0.091000
      83 "ECTOR" "83" 33.55351999999999890000 -96.28289700000000550000 ""     0.080000     0.080000
      84 "SUNSET" "84" 33.45599099999999740000 -97.75181800000000010000 ""     0.147000     0.147000
      85 "CLARKSVILLE" "85" 33.66306300000000110000 -94.99725800000000220000 ""     0.340000     0.340000
      86 "PANHANDLE 3" "86" 35.38603799999999920000 -101.57857199999999400000 ""     0.176000     0.176000
      87 "SADLER" "87" 33.73797400000000120000 -96.83954300000000610000 ""     0.800000     0.800000
      88 "WHITESBORO" "88" 33.74389299999999990000 -96.93612100000000000000 ""     1.980000     1.980000
      89 "SHEPPARD AFB" "89" 33.96952300000000240000 -98.50901600000000260000 ""     0.020000     0.020000
      90 "POTTSBORO" "90" 33.80071699999999880000 -96.72598899999999840000 ""     0.220000     0.220000
      91 "BELLS" "91" 33.62364500000000330000 -96.42787400000000280000 ""     0.560000     0.560000
      92 "CROSBYTON" "92" 33.77447899999999950000 -100.99011400000000600000 ""     0.060000     0.060000
      93 "ELECTRA" "93" 34.13168799999999690000 -99.10662399999999650000 ""     0.440000     0.440000
      94 "PATTONVILLE" "94" 33.40225000000000220000 -95.48320300000000320000 ""     0.310000     0.310000
      95 "HENRIETTA" "95" 33.75849000000000190000 -98.20225100000000400000 ""     0.151000     0.151000
      96 "PANHANDLE 6" "96" 34.90075999999999820000 -100.99454900000000600000 ""     0.070000     0.070000
      97 "BOWIE" "97" 33.52057200000000140000 -97.95611999999999850000 ""     0.450000     0.450000
      98 "WICHITA FALLS 1" "98" 33.91329999999999960000 -98.49309999999999830000 ""     0.350000     0.350000
      99 "WHITE DEER" "99" 35.47890000000000300000 -101.24389999999999600000 ""     0.153000     0.153000
     100 "ROXTON" "100" 33.57682299999999740000 -95.80970100000000400000 ""     0.330000     0.330000
     101 "VERNON 1" "101" 34.28999999999999910000 -99.36472200000000040000 ""     0.470000     0.470000
     102 "DENISON 2" "102" 33.77078499999999650000 -96.60406100000000150000 ""     0.074000     0.074000
     103 "SUMNER" "103" 33.74523599999999850000 -95.74432699999999840000 ""     1.210000     1.210000
     104 "GAINESVILLE" "104" 33.66158300000000030000 -97.17634999999999930000 ""     0.022000     0.022000
     105 "ASPERMONT" "105" 33.18306400000000170000 -100.24513299999999600000 ""     0.490000     0.490000
     106 "WICHITA FALLS 5" "106" 33.79908499999999800000 -98.50983999999999700000 ""     0.260000     0.260000
     107 "WINDTHORST" "107" 33.51262799999999940000 -98.45762700000000220000 ""     2.320000     2.320000
     108 "HOWE" "108" 33.45076799999999650000 -96.74224499999999690000 ""     0.152000     0.152000
     109 "ARCHER 2" "109" 33.49305600000000280000 -98.58194399999999290000 ""     0.250000     0.250000
     110 "COLLINSVILLE" "110" 33.53770600000000000000 -96.90657500000000370000 ""     0.670000     0.670000
     111 "JAYTON" "111" 32.96972199999999730000 -100.52416700000000600000 ""     0.049000     0.049000
     112 "MUENSTER 1" "112" 33.73300600000000320000 -97.42840599999999540000 ""     0.084000     0.084000
     113 "PADUCAH" "113" 33.99432199999999680000 -100.28724699999999400000 ""     0.270000     0.270000
     114 "NOCONA" "114" 33.79307399999999720000 -97.96380200000000120000 ""     0.095000     0.095000
     115 "DODD CITY" "115" 33.61553899999999830000 -96.07215600000000680000 ""     0.181000     0.181000
     116 "WICHITA FALLS 2" "116" 33.86249999999999720000 -98.58939999999999770000 ""     0.084000     0.084000
     117 "MONTAGUE" "117" 33.62690400000000320000 -97.68787299999999620000 ""     0.720000     0.720000
     118 "SPUR" "118" 33.34105300000000230000 -100.71473199999999800000 ""     0.420000     0.420000
     119 "ARCHER 1" "119" 33.49527799999999900000 -98.50000000000000000000 ""     0.340000     0.340000
     120 "ANNONA" "120" 33.49822100000000090000 -94.89084499999999880000 ""     0.099000     0.099000
     121 "SEYMOUR" "121" 33.62114499999999850000 -99.24376499999999620000 ""     0.128000     0.128000
     122 "DENISON 1" "122" 33.72712599999999840000 -96.47079399999999790000 ""     0.590000     0.590000
     123 "PANHANDLE 5" "123" 35.35029999999999720000 -101.54000000000000600000 ""     0.114000     0.114000
     124 "RALLS 1" "124" 33.66111099999999820000 -101.39000000000000100000 ""     0.420000     0.420000
     125 "SHERMAN 1" "125" 33.58257299999999650000 -96.61789299999999510000 ""     0.560000     0.560000
     126 "WHITEWRIGHT" "126" 33.49457699999999960000 -96.39611499999999470000 ""     0.280000     0.280000
     127 "SHERMAN 2" "127" 33.60413100000000240000 -96.55040499999999780000 ""     0.440000     0.440000
     128 "ROCHESTER" "128" 33.32283600000000230000 -99.64212600000000460000 ""     2.990000     2.990000
     129 "BURKBURNETT" "129" 34.10327300000000150000 -98.62246700000000030000 ""     0.820000     0.820000
     130 "MUENSTER 2" "130" 33.68208099999999660000 -97.38285500000000640000 ""     0.740000     0.740000
     131 "ARCHER CITY" "131" 33.52739600000000310000 -98.88478200000000130000 ""     0.220000     0.220000
     132 "PETROLIA" "132" 34.00830799999999950000 -98.25932000000000240000 ""     0.890000     0.890000
     133 "PARIS 1" "133" 33.63080000000000070000 -95.59000000000000340000 ""     0.330000     0.330000
     134 "BAGWELL" "134" 33.80186799999999890000 -95.15196600000000160000 ""     0.210000     0.210000
     135 "TELEPHONE" "135" 33.77871600000000280000 -95.99682300000000620000 ""     0.480000     0.480000
     136 "PANHANDLE 1" "136" 35.44277799999999700000 -101.37277799999999700000 ""     2.140000     2.140000
     137 "VAN ALSTYNE" "137" 33.43565999999999860000 -96.54991300000000360000 ""     0.390000     0.390000
     138 "TIOGA" "138" 33.46464300000000240000 -96.89272400000000120000 ""     0.460000     0.460000
     139 "VALLEY VIEW" "139" 33.45802799999999880000 -97.12855199999999910000 ""     0.860000     0.860000
     140 "MIAMI" "140" 35.65388899999999950000 -100.53861100000000300000 ""     0.640000     0.640000
     141 "TRENTON" "141" 33.43912499999999710000 -96.31148500000000470000 ""     0.091000     0.091000
     142 "HASKELL" "142" 33.12268499999999700000 -99.65038900000000410000 ""     3.260000     3.260000
     143 "SAINT JO" "143" 33.74136699999999680000 -97.53532900000000440000 ""     0.011000     0.011000
     144 "KERRVILLE" "144" 30.03670100000000080000 -99.16303899999999770000 ""     2.530000     2.530000
     145 "SWEETWATER 4" "145" 32.36059999999999800000 -100.33889999999999500000 ""     0.450000     0.450000
     146 "LEAKEY" "146" 29.64446999999999830000 -99.68247100000000670000 ""     0.120000     0.120000
     147 "HAMLIN" "147" 32.85700400000000340000 -100.12403200000000000000 ""     0.082000     0.082000
     148 "MERKEL 3" "148" 32.47362100000000140000 -100.03272300000000400000 ""     0.380000     0.380000
     149 "COLEMAN" "149" 31.73690200000000060000 -99.56779099999999970000 ""     0.290000     0.290000
     150 "SONORA" "150" 30.44141400000000180000 -100.56062000000000000000 ""     0.460000     0.460000
     151 "CAMP WOOD" "151" 29.67470000000000140000 -100.07858799999999600000 ""     0.061000     0.061000
     152 "LLANO" "152" 30.65374600000000170000 -98.91826600000000270000 ""     0.690000     0.690000
     153 "WILLOW CITY" "153" 30.43706900000000100000 -98.70871400000000050000 ""     0.090000     0.090000
     154 "ABILENE 4" "154" 32.33567699999999690000 -99.66748800000000590000 ""     0.148000     0.148000
     155 "KINGSLAND" "155" 30.67281799999999950000 -98.44274799999999460000 ""     0.830000     0.830000
     156 "ROSCOE 6" "156" 32.41521199999999680000 -100.57353899999999700000 ""     0.191000     0.191000
     157 "BLACKWELL" "157" 32.19809999999999660000 -100.26860000000000600000 ""     0.097000     0.097000
     158 "CHRISTOVAL" "158" 31.08543500000000040000 -100.67882000000000200000 ""     0.035000     0.035000
     159 "LUEDERS" "159" 32.86861900000000250000 -99.69449199999999680000 ""     0.290000     0.290000
     160 "COLORADO CITY" "160" 32.31450499999999690000 -100.91835600000000300000 ""     0.400000     0.400000
     161 "STAMFORD" "161" 32.94091099999999980000 -99.85096400000000470000 ""     0.310000     0.310000
     162 "ELDORADO" "162" 30.88353899999999900000 -100.59546400000000700000 ""     0.490000     0.490000
     163 "SAN SABA" "163" 31.15709299999999970000 -98.76399100000000430000 ""     0.097000     0.097000
     164 "ABILENE 2" "164" 32.62559999999999860000 -99.49280000000000260000 ""     4.580000     4.580000
     165 "LOMETA" "165" 31.25722400000000080000 -98.37674199999999300000 ""     0.710000     0.710000
     166 "SAN ANGELO 1" "166" 31.50972000000000150000 -100.32207499999999800000 ""     0.199000     0.199000
     167 "TUSCOLA" "167" 32.27408100000000250000 -99.82604100000000360000 ""     0.012000     0.012000
     168 "ABILENE 7" "168" 32.33355099999999990000 -99.92772399999999780000 ""     0.031000     0.031000
     169 "SNYDER 1" "169" 32.72039999999999790000 -100.99519999999999700000 ""     4.600000     4.600000
     170 "CHEROKEE" "170" 30.93982000000000100000 -99.07989299999999840000 ""     0.360000     0.360000
     171 "RICHLAND SPRINGS" "171" 31.51791300000000010000 -99.13546700000000560000 ""     0.154000     0.154000
     172 "ROSCOE 2" "172" 32.46940000000000030000 -100.66639999999999600000 ""     0.270000     0.270000
     173 "BALLINGER" "173" 31.73857599999999830000 -99.93416200000000060000 ""     0.086000     0.086000
     174 "SILVER" "174" 32.04999999999999720000 -100.69169999999999700000 ""     0.157000     0.157000
     175 "ROSCOE 5" "175" 32.31219999999999710000 -100.53029999999999700000 ""     0.760000     0.760000
     176 "ANSON" "176" 32.74786300000000240000 -99.90539400000000110000 ""     0.033000     0.033000
     177 "DEL RIO" "177" 29.83721999999999850000 -101.21243599999999700000 ""     3.840000     3.840000
     178 "HUNT" "178" 30.09511499999999980000 -99.62821099999999320000 ""     0.330000     0.330000
     179 "WINGATE" "179" 32.21402400000000200000 -100.05711999999999800000 ""     0.184000     0.184000
     180 "STERLING CITY 1" "180" 31.92610000000000170000 -100.92810000000000100000 ""     0.124000     0.124000
     181 "ROSCOE 4" "181" 32.23694400000000120000 -100.48330000000000000000 ""     0.600000     0.600000
     182 "BRADY" "182" 31.17695099999999900000 -99.61641199999999680000 ""     0.098000     0.098000
     183 "TRENT 1" "183" 32.43010000000000300000 -100.23565200000000200000 ""     0.440000     0.440000
     184 "OVALO" "184" 32.12024900000000120000 -99.75302700000000300000 ""     0.014000     0.014000
     185 "NOLAN" "185" 32.28779999999999720000 -100.09999999999999400000 ""     0.570000     0.570000
     186 "MILES" "186" 31.59201300000000150000 -100.19261600000000100000 ""     0.066000     0.066000
     187 "BRACKETTVILLE 2" "187" 29.23472200000000140000 -100.20916699999999400000 ""     0.360000     0.360000
     188 "MASON" "188" 30.84312200000000100000 -99.57005300000000150000 ""     0.340000     0.340000
     189 "BRACKETTVILLE 3" "189" 29.39562099999999840000 -100.43998499999999300000 ""     0.126000     0.126000
     190 "ABILENE 6" "190" 32.36278300000000030000 -99.81731399999999610000 ""     0.320000     0.320000
     191 "HERMLEIGH" "191" 32.58859999999999960000 -100.67279999999999500000 ""     0.085000     0.085000
     192 "MERKEL 1" "192" 32.31822100000000120000 -100.17698599999999900000 ""     0.240000     0.240000
     193 "LORAINE 1" "193" 32.43750000000000000000 -100.74439999999999900000 ""     0.092000     0.092000
     194 "ABILENE 1" "194" 32.51440000000000200000 -99.65640000000000500000 ""     0.082000     0.082000
     195 "ROCKSPRINGS" "195" 29.98809200000000170000 -100.28607599999999400000 ""     0.084000     0.084000
     196 "MERKEL 2" "196" 32.31155600000000310000 -100.06158899999999800000 ""     0.320000     0.320000
     197 "FLUVANNA 2" "197" 32.94792999999999950000 -101.14778400000000200000 ""     4.260000     4.260000
     198 "DYESS AFB" "198" 32.41582300000000320000 -99.90622999999999360000 ""     0.064000     0.064000
     199 "HAWLEY" "199" 32.63047300000000210000 -99.83064199999999740000 ""     1.350000     1.350000
     200 "BUCHANAN DAM 2" "200" 30.93676800000000070000 -98.46706600000000260000 ""     0.210000     0.210000
...
}
DATA (Limit_Monitoring_Options_Value, [VariableName,ValueField])
{
"LMS_IgnoreRadial"                 "NO"
}
DATA (LimitSet, [LSName,LSDisabled,DataMaintainerAssign,LSAmpMVA,LSEndMonitor,LSLinePercent,
   LSInterfacePercent,LSLineRateSet,LSInterfaceRateSet,LSLineRateSet:1,
   LSInterfaceRateSet:1,LSPUHigh,LSPULow,LSCtgPUHigh,LSCtgPULow,LSBusHighRateSet,
   LSBusLowRateSet,LSCtgBusHighRateSet,LSCtgBusLowRateSet])
{
"Default" "NO " "" "MVA" "Higher" 100.0000 100.0000 "A" "A" "A" "A" 1.100000 0.900000 1.100000 0.900000 "A" "A" "A" "A"
}
DATA (RatingSetNameBus, [Name,Header,Description])
{
"A" "" ""
"B" "" ""
"C" "" ""
"D" "" ""
}
DATA (RatingSetNameBranch, [Name,Header,Description])
{
"A" "" ""
"B" "" ""
"C" "" ""
"D" "" ""
"E" "" ""
"F" "" ""
"G" "" ""
"H" "" ""
"I" "" ""
"J" "" ""
"K" "" ""
"L" "" ""
"M" "" ""
"N" "" ""
"O" "" ""
}
DATA (RatingSetNameInterface, [Name,Header,Description])
{
"A" "" ""
"B" "" ""
"C" "" ""
"D" "" ""
"E" "" ""
"F" "" ""
"G" "" ""
"H" "" ""
"I" "" ""
"J" "" ""
"K" "" ""
"L" "" ""
"M" "" ""
"N" "" ""
"O" "" ""
}
DATA (Bus, [BusNum,BusName,BusNomVolt,BusSlack,BusB:1,BusG:1,BusPUVolt,BusAngle,
   DCLossMultiplier,AreaNum,ZoneNum,BANumber,OwnerNum,SubNum,Latitude:1,
   Longitude:1,BusMonEle,LSName,BusVoltLim,BusVoltLimLow:1,BusVoltLimLow:2,
   BusVoltLimLow:3,BusVoltLimLow:4,BusVoltLimHigh:1,BusVoltLimHigh:2,
   BusVoltLimHigh:3,BusVoltLimHigh:4,Latitude,Longitude,TopologyBusType,Priority,
   EMSType,EMSDeviceID,DataMaintainerAssign,AllLabels,GICConductance])
{
  1001 "ODESSA 2 0"   115.00000000000000000000 "NO " 0.00000000000000000000 0.00000000000000000000 0.97943564576828301400 -22.73484371302394180000 1.00000000000000000000      1      9      1      1 1    31.906736  -102.262348 "YES" "Default" "NO " "" "" "" "" "" "" "" "" "" "" "BusbarSection" 0 "" "" "" "" ""
  1002 "PRESIDIO 2 0" 115.00000000000000000000 "NO " 0.00000000000000000000 0.00000000000000000000 1.01273638906515728000 -18.08854490372098670000 1.00000000000000000000      1      9      1      1 2    29.888046  -104.519139 "YES" "Default" "NO " "" "" "" "" "" "" "" "" "" "" "BusbarSection" 0 "" "" "" "" ""
  1003 "O DONNELL 1 0" 115.00000000000000000000 "NO " 0.00000000000000000000 0.00000000000000000000 1.00926289629446408000 -17.08669935792778460000 1.00000000000000000000      1      9      1      1 3    32.926389  -101.647778 "YES" "Default" "NO " "" "" "" "" "" "" "" "" "" "" "BusbarSection" 0 "" "" "" "" ""
  1004 "O DONNELL 1 1" 230.00000000000000000000 "NO " 0.00000000000000000000 0.00000000000000000000 1.01307071238921131000 -18.93399887767440150000 1.00000000000000000000      1      9      1      1 3    32.926389  -101.647778 "YES" "Default" "NO " "" "" "" "" "" "" "" "" "" "" "BusbarSection" 0 "" "" "" ""   132.104346
  1005 "BIG SPRING 5 0" 115.00000000000000000000 "NO " 0.00000000000000000000 0.00000000000000000000 1.00557608733691706000 -16.07715710466700540000 1.00000000000000000000      1      9      1      1 4    32.207500  -101.388333 "YES" "Default" "NO " "" "" "" "" "" "" "" "" "" "" "BusbarSection" 0 "" "" "" "" ""
  1006 "BIG SPRING 5 1" 13.80000019073486330000 "NO " 0.00000000000000000000 0.00000000000000000000 0.99999999999994881900 -13.90559067844956510000 1.00000000000000000000      1      9      1      1 4    32.207500  -101.388333 "YES" "Default" "NO " "" "" "" "" "" "" "" "" "" "" "BusbarSection" 0 "" "" "" "" ""
  1007 "VAN HORN 0"   115.00000000000000000000 "NO " 0.00000000000000000000 0.00000000000000000000 1.01999998092646194000 -18.46721236518943240000 1.00000000000000000000      1      9      1      1 5    31.093480  -104.624514 "YES" "Default" "NO " "" "" "" "" "" "" "" "" "" "" "BusbarSection" 0 "" "" "" "" ""
  1008 "IRAAN 2 0"    115.00000000000000000000 "NO " 0.00000000000000000000 0.00000000000000000000 1.01928505848492779000 -8.60520741778047693000 1.00000000000000000000      1      9      1      1 6    30.931467  -102.201433 "YES" "Default" "NO " "" "" "" "" "" "" "" "" "" "" "BusbarSection" 0 "" "" "" "" ""
  1009 "IRAAN 2 1"    13.80000019073486330000 "NO " 0.00000000000000000000 0.00000000000000000000 1.00924016782113846000 -5.30959754585988364000 1.00000000000000000000      1      9      1      1 6    30.931467  -102.201433 "YES" "Default" "NO " "" "" "" "" "" "" "" "" "" "" "BusbarSection" 0 "" "" "" "" ""
  1010 "PRESIDIO 1 0" 115.00000000000000000000 "NO " 0.00000000000000000000 0.00000000000000000000 1.01999998092645328000 -16.79235458313289090000 1.00000000000000000000      1      9      1      1 7    29.600000  -104.300000 "YES" "Default" "NO " "" "" "" "" "" "" "" "" "" "" "BusbarSection" 0 "" "" "" "" ""
  1011 "PRESIDIO 1 1" 22.00000000000000000000 "NO " 0.00000000000000000000 0.00000000000000000000 1.02021113768778959000 -15.00982550171449500000 1.00000000000000000000      1      9      1      1 7    29.600000  -104.300000 "YES" "Default" "NO " "" "" "" "" "" "" "" "" "" "" "BusbarSection" 0 "" "" "" "" ""
  1012 "SANDERSON 0"  115.00000000000000000000 "NO " 0.00000000000000000000 0.00000000000000000000 1.00599209012913215000 -25.34278346976286040000 1.00000000000000000000      1      9      1      1 8    30.028067  -101.970461 "YES" "Default" "NO " "" "" "" "" "" "" "" "" "" "" "BusbarSection" 0 "" "" "" "" ""
  1013 "MONAHANS 2 0" 115.00000000000000000000 "NO " 0.00000000000000000000 0.00000000000000000000 1.00567720384987846000 -15.43656456892971640000 1.00000000000000000000      1      9      1      1 9    31.484586  -103.161046 "YES" "Default" "NO " "" "" "" "" "" "" "" "" "" "" "BusbarSection" 0 "" "" "" "" ""
  1014 "GRANDFALLS 0" 115.00000000000000000000 "NO " 0.00000000000000000000 0.00000000000000000000 1.01235047332479366000 -11.91324967317703100000 1.00000000000000000000      1      9      1      1 10    31.169523  -103.085134 "YES" "Default" "NO " "" "" "" "" "" "" "" "" "" "" "BusbarSection" 0 "" "" "" "" ""
  1015 "MARFA 0"      115.00000000000000000000 "NO " 0.00000000000000000000 0.00000000000000000000 1.02181768769137071000 -18.21450061899778920000 1.00000000000000000000      1      9      1      1 11    30.285296  -104.005761 "YES" "Default" "NO " "" "" "" "" "" "" "" "" "" "" "BusbarSection" 0 "" "" "" "" ""
  1016 "GARDEN CITY 0" 115.00000000000000000000 "NO " 0.00000000000000000000 0.00000000000000000000 1.01740691181242204000 -15.48544783735409600000 1.00000000000000000000      1      9      1      1 12    31.763075  -101.501775 "YES" "Default" "NO " "" "" "" "" "" "" "" "" "" "" "BusbarSection" 0 "" "" "" "" ""
  1017 "ODESSA 4 0"   115.00000000000000000000 "NO " 0.00000000000000000000 0.00000000000000000000 0.98167340362557242700 -21.42622154469818340000 1.00000000000000000000      1      9      1      1 13    31.725171  -102.413607 "YES" "Default" "NO " "" "" "" "" "" "" "" "" "" "" "BusbarSection" 0 "" "" "" "" ""
  1018 "NOTREES 0"    115.00000000000000000000 "NO " 0.00000000000000000000 0.00000000000000000000 0.99114688297583819500 -20.21614828579245680000 1.00000000000000000000      1      9      1      1 14    31.799171  -102.632933 "YES" "Default" "NO " "" "" "" "" "" "" "" "" "" "" "BusbarSection" 0 "" "" "" "" ""
  1019 "MIDLAND 4 0"  115.00000000000000000000 "NO " 0.00000000000000000000 0.00000000000000000000 0.99949185028066356300 -22.32041692866927460000 1.00000000000000000000      1      9      1      1 15    31.979427  -102.132366 "YES" "Default" "NO " "" "" "" "" "" "" "" "" "" "" "BusbarSection" 0 "" "" "" "" ""
  1020 "BIG SPRING 1 0" 115.00000000000000000000 "NO " 0.00000000000000000000 0.00000000000000000000 1.01999998092646238000 -15.23006375830309270000 1.00000000000000000000      1      9      1      1 16    31.992500  -101.116700 "YES" "Default" "NO " "" "" "" "" "" "" "" "" "" "" "BusbarSection" 0 "" "" "" "" ""
  1021 "BIG SPRING 1 1" 13.80000019073486330000 "NO " 0.00000000000000000000 0.00000000000000000000 0.99999999999995148300 -8.60676051004582376000 1.00000000000000000000      1      9      1      1 16    31.992500  -101.116700 "YES" "Default" "NO " "" "" "" "" "" "" "" "" "" "" "BusbarSection" 0 "" "" "" "" ""
  1022 "O DONNELL 2 0" 115.00000000000000000000 "NO " 0.00000000000000000000 0.00000000000000000000 1.01242309343688963000 -16.20469253974223280000 1.00000000000000000000      1      9      1      1 17    32.929014  -101.578617 "YES" "Default" "NO " "" "" "" "" "" "" "" "" "" "" "BusbarSection" 0 "" "" "" "" ""
  1023 "O DONNELL 2 1" 13.80000019073486330000 "NO " 0.00000000000000000000 0.00000000000000000000 1.00999999046368338000 -7.30039282889317231000 1.00000000000000000000      1      9      1      1 17    32.929014  -101.578617 "YES" "Default" "NO " "" "" "" "" "" "" "" "" "" "" "BusbarSection" 0 "" "" "" "" ""
  1024 "ODESSA 6 0"   115.00000000000000000000 "NO " 0.00000000000000000000 0.00000000000000000000 0.99449505083358191700 -19.20024930992762790000 1.00000000000000000000      1      9      1      1 18    31.969312  -102.630882 "YES" "Default" "NO " "" "" "" "" "" "" "" "" "" "" "BusbarSection" 0 "" "" "" "" ""
  1025 "BIG SPRINGS 0" 115.00000000000000000000 "NO " 0.00000000000000000000 0.00000000000000000000 1.01628834798216072000 -14.17040581234125800000 1.00000000000000000000      1      9      1      1 19    32.039000  -101.220000 "YES" "Default" "NO " "" "" "" "" "" "" "" "" "" "" "BusbarSection" 0 "" "" "" "" ""
  1026 "BIG SPRINGS 1" 13.80000019073486330000 "NO " 0.00000000000000000000 0.00000000000000000000 0.99999999999994515500 -4.64146229828441736000 1.00000000000000000000      1      9      1      1 19    32.039000  -101.220000 "YES" "Default" "NO " "" "" "" "" "" "" "" "" "" "" "BusbarSection" 0 "" "" "" "" ""
  1027 "MIDLAND 2 0"  115.00000000000000000000 "NO " 0.00000000000000000000 0.00000000000000000000 1.00530464271394804000 -25.83333596782225070000 1.00000000000000000000      1      9      1      1 20    32.321673  -102.042298 "YES" "Default" "NO " "" "" "" "" "" "" "" "" "" "" "BusbarSection" 0 "" "" "" "" ""
  1028 "COAHOMA 0"    115.00000000000000000000 "NO " 0.00000000000000000000 0.00000000000000000000 1.01541593876121405000 -17.71713648513150830000 1.00000000000000000000      1      9      1      1 21    32.879511  -101.246784 "YES" "Default" "NO " "" "" "" "" "" "" "" "" "" "" "BusbarSection" 0 "" "" "" "" ""
  1029 "MIDLAND 3 0"  115.00000000000000000000 "NO " 0.00000000000000000000 0.00000000000000000000 1.00241740792417255000 -24.85888757436625700000 1.00000000000000000000      1      9      1      1 22    31.992384  -102.081464 "YES" "Default" "NO " "" "" "" "" "" "" "" "" "" "" "BusbarSection" 0 "" "" "" "" ""
  1030 "ALPINE 0"     115.00000000000000000000 "NO " 0.00000000000000000000 0.00000000000000000000 1.01222979836152183000 -13.41143038675702750000 1.00000000000000000000      1      9      1      1 23    29.802094  -103.222360 "YES" "Default" "NO " "" "" "" "" "" "" "" "" "" "" "BusbarSection" 0 "" "" "" "" ""
  1031 "FORT DAVIS 0" 115.00000000000000000000 "NO " 0.00000000000000000000 0.00000000000000000000 1.01218883755745503000 -17.67225828071563850000 1.00000000000000000000      1      9      1      1 24    31.004969  -103.759065 "YES" "Default" "NO " "" "" "" "" "" "" "" "" "" "" "BusbarSection" 0 "" "" "" "" ""
  1032 "MCCAMEY 1 0"  115.00000000000000000000 "NO " 0.00000000000000000000 0.00000000000000000000 1.00065834578732060000 -12.28047073411836900000 1.00000000000000000000      1      9      1      1 25    31.209200  -102.241700 "YES" "Default" "NO " "" "" "" "" "" "" "" "" "" "" "BusbarSection" 0 "" "" "" "" ""
  1033 "MCCAMEY 1 1"  230.00000000000000000000 "NO " 0.00000000000000000000 0.00000000000000000000 1.01675417891030229000 -16.89851460575155070000 1.00000000000000000000      1      9      1      1 25    31.209200  -102.241700 "YES" "Default" "NO " "" "" "" "" "" "" "" "" "" "" "BusbarSection" 0 "" "" "" ""   174.052177
  1034 "BIG SPRING 4 0" 115.00000000000000000000 "NO " 0.00000000000000000000 0.00000000000000000000 1.00453450184529181000 -14.32034868860539230000 1.00000000000000000000      1      9      1      1 26    31.991442  -101.302637 "YES" "Default" "NO " "" "" "" "" "" "" "" "" "" "" "BusbarSection" 0 "" "" "" "" ""
  1035 "BIG SPRING 4 1" 13.80000019073486330000 "NO " 0.00000000000000000000 0.00000000000000000000 0.99999999999995969900 -11.03041588151463340000 1.00000000000000000000      1      9      1      1 26    31.991442  -101.302637 "YES" "Default" "NO " "" "" "" "" "" "" "" "" "" "" "BusbarSection" 0 "" "" "" "" ""
  1036 "CRANE 0"      115.00000000000000000000 "NO " 0.00000000000000000000 0.00000000000000000000 0.99762475372197223500 -12.52697174687279080000 1.00000000000000000000      1      9      1      1 27    31.186888  -102.596253 "YES" "Default" "NO " "" "" "" "" "" "" "" "" "" "" "BusbarSection" 0 "" "" "" "" ""
  1037 "ODESSA 5 0"   115.00000000000000000000 "NO " 0.00000000000000000000 0.00000000000000000000 0.97450436870216417000 -22.54480019463488820000 1.00000000000000000000      1      9      1      1 28    31.799158  -102.474090 "YES" "Default" "NO " "" "" "" "" "" "" "" "" "" "" "BusbarSection" 0 "" "" "" "" ""
  1038 "FORT STOCKTON 1 0" 115.00000000000000000000 "NO " 0.00000000000000000000 0.00000000000000000000 1.01656736296445649000 -7.64660696425374997000 1.00000000000000000000      1      9      1      1 29    30.772575  -102.505808 "YES" "Default" "NO " "" "" "" "" "" "" "" "" "" "" "BusbarSection" 0 "" "" "" "" ""
  1039 "FORT STOCKTON 1 1" 22.00000000000000000000 "NO " 0.00000000000000000000 0.00000000000000000000 0.99999999999995170500 -2.26305174543629173000 1.00000000000000000000      1      9      1      1 29    30.772575  -102.505808 "YES" "Default" "NO " "" "" "" "" "" "" "" "" "" "" "BusbarSection" 0 "" "" "" "" ""
  1040 "ANDREWS 0"    115.00000000000000000000 "NO " 0.00000000000000000000 0.00000000000000000000 0.99401453168592268600 -20.48004054206764120000 1.00000000000000000000      1      9      1      1 30    32.335729  -102.697303 "YES" "Default" "NO " "" "" "" "" "" "" "" "" "" "" "BusbarSection" 0 "" "" "" "" ""
  1041 "FORSAN 0"     115.00000000000000000000 "NO " 0.00000000000000000000 0.00000000000000000000 1.00177461528576828000 -15.10750377108633740000 1.00000000000000000000      1      9      1      1 31    32.140800  -101.398600 "YES" "Default" "NO " "" "" "" "" "" "" "" "" "" "" "BusbarSection" 0 "" "" "" "" ""
  1042 "FORSAN 1"     13.80000019073486330000 "NO " 0.00000000000000000000 0.00000000000000000000 1.00177461528576828000 -15.10750377108633740000 1.00000000000000000000      1      9      1      1 31    32.140800  -101.398600 "YES" "Default" "NO " "" "" "" "" "" "" "" "" "" "" "BusbarSection" 0 "" "" "" "" ""
  1043 "FORSAN 2"     13.80000019073486330000 "NO " 0.00000000000000000000 0.00000000000000000000 0.99999999999994437800 -11.86417658059141540000 1.00000000000000000000      1      9      1      1 31    32.140800  -101.398600 "YES" "Default" "NO " "" "" "" "" "" "" "" "" "" "" "BusbarSection" 0 "" "" "" "" ""
  1044 "BIG LAKE 0"   115.00000000000000000000 "NO " 0.00000000000000000000 0.00000000000000000000 1.00675545543253953000 -25.96388102614127290000 1.00000000000000000000      1      9      1      1 32    31.272551  -101.172783 "YES" "Default" "NO " "" "" "" "" "" "" "" "" "" "" "BusbarSection" 0 "" "" "" "" ""
  1045 "MIDLAND 5 0"  115.00000000000000000000 "NO " 0.00000000000000000000 0.00000000000000000000 0.97742546941832642000 -24.44755584738052790000 1.00000000000000000000      1      9      1      1 33    32.053604  -102.201660 "YES" "Default" "NO " "" "" "" "" "" "" "" "" "" "" "BusbarSection" 0 "" "" "" "" ""
  1046 "OZONA 0"      115.00000000000000000000 "NO " 0.00000000000000000000 0.00000000000000000000 1.01763437360491604000 -22.49139645259308650000 1.00000000000000000000      1      9      1      1 34    30.575618  -101.331239 "YES" "Default" "NO " "" "" "" "" "" "" "" "" "" "" "BusbarSection" 0 "" "" "" "" ""
  1047 "MONAHANS 1 0" 115.00000000000000000000 "NO " 0.00000000000000000000 0.00000000000000000000 1.00525077815853159000 -13.35005009376205190000 1.00000000000000000000      1      9      1      1 35    31.583900  -102.963300 "YES" "Default" "NO " "" "" "" "" "" "" "" "" "" "" "BusbarSection" 0 "" "" "" "" ""
  1048 "MONAHANS 1 1" 18.00000000000000000000 "NO " 0.00000000000000000000 0.00000000000000000000 1.00525077815853159000 -13.35005009376205190000 1.00000000000000000000      1      9      1      1 35    31.583900  -102.963300 "YES" "Default" "NO " "" "" "" "" "" "" "" "" "" "" "BusbarSection" 0 "" "" "" "" ""
  1049 "MONAHANS 1 2" 18.00000000000000000000 "NO " 0.00000000000000000000 0.00000000000000000000 1.00525077815853159000 -13.35005009376205190000 1.00000000000000000000      1      9      1      1 35    31.583900  -102.963300 "YES" "Default" "NO " "" "" "" "" "" "" "" "" "" "" "BusbarSection" 0 "" "" "" "" ""
  1050 "MONAHANS 1 3" 18.00000000000000000000 "NO " 0.00000000000000000000 0.00000000000000000000 0.99999999999993416400 -8.28478898518497964000 1.00000000000000000000      1      9      1      1 35    31.583900  -102.963300 "YES" "Default" "NO " "" "" "" "" "" "" "" "" "" "" "BusbarSection" 0 "" "" "" "" ""
  1051 "MONAHANS 1 4" 18.00000000000000000000 "NO " 0.00000000000000000000 0.00000000000000000000 0.99999999999993849400 -6.80738886178231795000 1.00000000000000000000      1      9      1      1 35    31.583900  -102.963300 "YES" "Default" "NO " "" "" "" "" "" "" "" "" "" "" "BusbarSection" 0 "" "" "" "" ""
  1052 "MONAHANS 1 5" 18.00000000000000000000 "NO " 0.00000000000000000000 0.00000000000000000000 0.99999999999993449700 -9.13436926145748629000 1.00000000000000000000      1      9      1      1 35    31.583900  -102.963300 "YES" "Default" "NO " "" "" "" "" "" "" "" "" "" "" "BusbarSection" 0 "" "" "" "" ""
  1053 "MONAHANS 1 6" 230.00000000000000000000 "NO " 0.00000000000000000000 0.00000000000000000000 1.01740888169163468000 -17.33615953863843020000 1.00000000000000000000      1      9      1      1 35    31.583900  -102.963300 "YES" "Default" "NO " "" "" "" "" "" "" "" "" "" "" "BusbarSection" 0 "" "" "" "" ""
  1054 "STANTON 0"    115.00000000000000000000 "NO " 0.00000000000000000000 0.00000000000000000000 1.00368437807723132000 -22.29233143458989370000 1.00000000000000000000      1      9      1      1 36    32.489818  -101.754488 "YES" "Default" "NO " "" "" "" "" "" "" "" "" "" "" "BusbarSection" 0 "" "" "" "" ""
  1055 "ODONNELL 0"   115.00000000000000000000 "NO " 0.00000000000000000000 0.00000000000000000000 1.00140496451374039000 -18.12956251375753070000 1.00000000000000000000      1      9      1      1 37    32.927010  -101.764414 "YES" "Default" "NO " "" "" "" "" "" "" "" "" "" "" "BusbarSection" 0 "" "" "" "" ""
  1056 "LENORAH 0"    115.00000000000000000000 "NO " 0.00000000000000000000 0.00000000000000000000 1.01999998092638688000 -21.81961165166859120000 1.00000000000000000000      1      9      1      1 38    32.235300  -101.836700 "YES" "Default" "NO " "" "" "" "" "" "" "" "" "" "" "BusbarSection" 0 "" "" "" "" ""
  1057 "LENORAH 1"    18.00000000000000000000 "NO " 0.00000000000000000000 0.00000000000000000000 1.01999998092638688000 -21.81961165166859120000 1.00000000000000000000      1      9      1      1 38    32.235300  -101.836700 "YES" "Default" "NO " "" "" "" "" "" "" "" "" "" "" "BusbarSection" 0 "" "" "" "" ""
  1058 "IRAAN 3 0"    115.00000000000000000000 "NO " 0.00000000000000000000 0.00000000000000000000 1.01937378923095556000 -11.22088342789175820000 1.00000000000000000000      1      9      1      1 39    30.884700  -101.920800 "YES" "Default" "NO " "" "" "" "" "" "" "" "" "" "" "BusbarSection" 0 "" "" "" "" ""
  1059 "IRAAN 3 1"    22.00000000000000000000 "NO " 0.00000000000000000000 0.00000000000000000000 1.01937378923095556000 -11.22088342789175820000 1.00000000000000000000      1      9      1      1 39    30.884700  -101.920800 "YES" "Default" "NO " "" "" "" "" "" "" "" "" "" "" "BusbarSection" 0 "" "" "" "" ""
  1060 "IRAAN 3 2"    22.00000000000000000000 "NO " 0.00000000000000000000 0.00000000000000000000 1.01937378923095556000 -11.22088342789175820000 1.00000000000000000000      1      9      1      1 39    30.884700  -101.920800 "YES" "Default" "NO " "" "" "" "" "" "" "" "" "" "" "BusbarSection" 0 "" "" "" "" ""
  1061 "BIG SPRING 6 0" 115.00000000000000000000 "NO " 0.00000000000000000000 0.00000000000000000000 1.00655657469351567000 -17.21936364078734270000 1.00000000000000000000      1      9      1      1 40    32.273182  -101.422436 "YES" "Default" "NO " "" "" "" "" "" "" "" "" "" "" "BusbarSection" 0 "" "" "" "" ""
  1062 "BIG SPRING 6 1" 13.80000019073486330000 "NO " 0.00000000000000000000 0.00000000000000000000 1.00655657469351567000 -17.21936364078734270000 1.00000000000000000000      1      9      1      1 40    32.273182  -101.422436 "YES" "Default" "NO " "" "" "" "" "" "" "" "" "" "" "BusbarSection" 0 "" "" "" "" ""
  1063 "BIG SPRING 6 2" 13.80000019073486330000 "NO " 0.00000000000000000000 0.00000000000000000000 1.00655657469351567000 -17.21936364078734270000 1.00000000000000000000      1      9      1      1 40    32.273182  -101.422436 "YES" "Default" "NO " "" "" "" "" "" "" "" "" "" "" "BusbarSection" 0 "" "" "" "" ""
  1064 "ODESSA 3 0"   115.00000000000000000000 "NO " 0.00000000000000000000 0.00000000000000000000 0.97203446809168647700 -24.15327245848112270000 1.00000000000000000000      1      9      1      1 41    32.001129  -102.312423 "YES" "Default" "NO " "" "" "" "" "" "" "" "" "" "" "BusbarSection" 0 "" "" "" "" ""
  1065 "BIG SPRING 3 0" 115.00000000000000000000 "NO " 0.00000000000000000000 0.00000000000000000000 1.00426054191716485000 -14.93257828847692890000 1.00000000000000000000      1      9      1      1 42    32.100823  -101.451385 "YES" "Default" "NO " "" "" "" "" "" "" "" "" "" "" "BusbarSection" 0 "" "" "" "" ""
  1066 "BIG SPRING 3 1" 13.80000019073486330000 "NO " 0.00000000000000000000 0.00000000000000000000 0.99999999999992694700 -7.39905406154613932000 1.00000000000000000000      1      9      1      1 42    32.100823  -101.451385 "YES" "Default" "NO " "" "" "" "" "" "" "" "" "" "" "BusbarSection" 0 "" "" "" "" ""
  1067 "BIG SPRING 7 0" 115.00000000000000000000 "NO " 0.00000000000000000000 0.00000000000000000000 0.99859524993995063500 -15.68248041818153200000 1.00000000000000000000      1      9      1      1 43    32.102911  -101.365434 "YES" "Default" "NO " "" "" "" "" "" "" "" "" "" "" "BusbarSection" 0 "" "" "" "" ""
  1068 "MIDLAND 1 0"  115.00000000000000000000 "NO " 0.00000000000000000000 0.00000000000000000000 0.98680340179877457100 -16.43689405435055660000 1.00000000000000000000      1      9      1      1 44    31.517628  -101.918007 "YES" "Default" "NO " "" "" "" "" "" "" "" "" "" "" "BusbarSection" 0 "" "" "" "" ""
  1069 "IRAAN 1 0"    115.00000000000000000000 "NO " 0.00000000000000000000 0.00000000000000000000 1.02255980187289719000 -8.73258814541081918000 1.00000000000000000000      1      9      1      1 45    30.917800  -102.086700 "YES" "Default" "NO " "" "" "" "" "" "" "" "" "" "" "BusbarSection" 0 "" "" "" "" ""
  1070 "IRAAN 1 1"    13.80000019073486330000 "NO " 0.00000000000000000000 0.00000000000000000000 1.03999996185297960000 -4.22877687943050606000 1.00000000000000000000      1      9      1      1 45    30.917800  -102.086700 "YES" "Default" "NO " "" "" "" "" "" "" "" "" "" "" "BusbarSection" 0 "" "" "" "" ""
  1071 "ODESSA 1 0"   115.00000000000000000000 "NO " 0.00000000000000000000 0.00000000000000000000 0.98702674567131332100 -21.47404043977866550000 1.00000000000000000000      1      9      1      1 46    31.840300  -102.326400 "YES" "Default" "NO " "" "" "" "" "" "" "" "" "" "" "BusbarSection" 0 "" "" "" "" ""
  1072 "ODESSA 1 1"   18.00000000000000000000 "NO " 0.00000000000000000000 0.00000000000000000000 1.00999999046319111000 -12.11002734994404230000 1.00000000000000000000      1      9      1      1 46    31.840300  -102.326400 "YES" "Default" "NO " "" "" "" "" "" "" "" "" "" "" "BusbarSection" 0 "" "" "" "" ""
  1073 "ODESSA 1 2"   18.00000000000000000000 "NO " 0.00000000000000000000 0.00000000000000000000 1.00999999046318734000 -5.68197218223821388000 1.00000000000000000000      1      9      1      1 46    31.840300  -102.326400 "YES" "Default" "NO " "" "" "" "" "" "" "" "" "" "" "BusbarSection" 0 "" "" "" "" ""
  1074 "ODESSA 1 3"   18.00000000000000000000 "NO " 0.00000000000000000000 0.00000000000000000000 1.00999999046318867000 -7.73800879962842281000 1.00000000000000000000      1      9      1      1 46    31.840300  -102.326400 "YES" "Default" "NO " "" "" "" "" "" "" "" "" "" "" "BusbarSection" 0 "" "" "" "" ""
  1075 "ODESSA 1 4"   18.00000000000000000000 "NO " 0.00000000000000000000 0.00000000000000000000 1.00999999046319622000 -10.50554298832586580000 1.00000000000000000000      1      9      1      1 46    31.840300  -102.326400 "YES" "Default" "NO " "" "" "" "" "" "" "" "" "" "" "BusbarSection" 0 "" "" "" "" ""
  1076 "ODESSA 1 5"   18.00000000000000000000 "NO " 0.00000000000000000000 0.00000000000000000000 0.98702674567131332100 -21.47404043977866550000 1.00000000000000000000      1      9      1      1 46    31.840300  -102.326400 "YES" "Default" "NO " "" "" "" "" "" "" "" "" "" "" "BusbarSection" 0 "" "" "" "" ""
  1077 "ODESSA 1 6"   18.00000000000000000000 "NO " 0.00000000000000000000 0.00000000000000000000 0.98702674567131332100 -21.47404043977866550000 1.00000000000000000000      1      9      1      1 46    31.840300  -102.326400 "YES" "Default" "NO " "" "" "" "" "" "" "" "" "" "" "BusbarSection" 0 "" "" "" "" ""
  1078 "ODESSA 1 7"   18.00000000000000000000 "NO " 0.00000000000000000000 0.00000000000000000000 1.00999999046318956000 -11.02465923234661460000 1.00000000000000000000      1      9      1      1 46    31.840300  -102.326400 "YES" "Default" "NO " "" "" "" "" "" "" "" "" "" "" "BusbarSection" 0 "" "" "" "" ""
  1079 "ODESSA 1 8"   500.00000000000000000000 "NO " 0.00000000000000000000 0.00000000000000000000 1.01621409300181997000 -38.58285921756469610000 1.00000000000000000000      1      9      1      1 46    31.840300  -102.326400 "YES" "Default" "NO " "" "" "" "" "" "" "" "" "" "" "BusbarSection" 0 "" "" "" ""    27.504000
  1080 "ODESSA 1 9"   18.00000000000000000000 "NO " 0.00000000000000000000 0.00000000000000000000 1.00999999046318423000 -10.44867621240968170000 1.00000000000000000000      1      9      1      1 46    31.840300  -102.326400 "YES" "Default" "NO " "" "" "" "" "" "" "" "" "" "" "BusbarSection" 0 "" "" "" "" ""
  1081 "ODESSA 1 10"  230.00000000000000000000 "NO " 0.00000000000000000000 0.00000000000000000000 1.01999998092645083000 -18.69128654168334340000 1.00000000000000000000      1      9      1      1 46    31.840300  -102.326400 "YES" "Default" "NO " "" "" "" "" "" "" "" "" "" "" "BusbarSection" 0 "" "" "" "" ""
  1082 "FORT STOCKTON 2 0" 115.00000000000000000000 "NO " 0.00000000000000000000 0.00000000000000000000 1.01941255211548398000 -5.91039168489374767000 1.00000000000000000000      1      9      1      1 47    30.807272  -102.355628 "YES" "Default" "NO " "" "" "" "" "" "" "" "" "" "" "BusbarSection" 0 "" "" "" ""   187.826087
  1083 "FORT STOCKTON 3 0" 115.00000000000000000000 "NO " 0.00000000000000000000 0.00000000000000000000 1.01886172090779015000 -9.88674269529842142000 1.00000000000000000000      1      9      1      1 48    30.747459  -102.790792 "YES" "Default" "NO " "" "" "" "" "" "" "" "" "" "" "BusbarSection" 0 "" "" "" "" ""
  1084 "BIG SPRING 2 0" 115.00000000000000000000 "NO " 0.00000000000000000000 0.00000000000000000000 1.02251989306430002000 -16.46720581554751920000 1.00000000000000000000      1      9      1      1 49    31.936100  -101.298300 "YES" "Default" "NO " "" "" "" "" "" "" "" "" "" "" "BusbarSection" 0 "" "" "" ""   144.626093
  1085 "KERMIT 0"     115.00000000000000000000 "NO " 0.00000000000000000000 0.00000000000000000000 1.00898695502252411000 -15.34286896304836570000 1.00000000000000000000      1      9      1      1 50    31.696251  -103.138992 "YES" "Default" "NO " "" "" "" "" "" "" "" "" "" "" "BusbarSection" 0 "" "" "" "" ""
  1086 "PECOS 0"      115.00000000000000000000 "NO " 0.00000000000000000000 0.00000000000000000000 1.01537401600966826000 -17.58505660245563360000 1.00000000000000000000      1      9      1      1 51    31.803547  -103.599914 "YES" "Default" "NO " "" "" "" "" "" "" "" "" "" "" "BusbarSection" 0 "" "" "" "" ""
  1087 "SHEFFIELD 0"  115.00000000000000000000 "NO " 0.00000000000000000000 0.00000000000000000000 1.01999998092647215000 -16.12540194404560620000 1.00000000000000000000      1      9      1      1 52    30.596998  -101.784530 "YES" "Default" "NO " "" "" "" "" "" "" "" "" "" "" "BusbarSection" 0 "" "" "" "" ""
  1088 "MCCAMEY 2 0"  115.00000000000000000000 "NO " 0.00000000000000000000 0.00000000000000000000 0.99999999999993649500 -11.87846608772151140000 1.00000000000000000000      1      9      1      1 53    31.139200  -102.225300 "YES" "Default" "NO " "" "" "" "" "" "" "" "" "" "" "BusbarSection" 0 "" "" "" ""    93.913043
  1089 "LAMESA 0"     115.00000000000000000000 "NO " 0.00000000000000000000 0.00000000000000000000 0.98063182722805053400 -21.30675285957860510000 1.00000000000000000000      1      9      1      1 54    32.929648  -102.133506 "YES" "Default" "NO " "" "" "" "" "" "" "" "" "" "" "BusbarSection" 0 "" "" "" "" ""
  1090 "GOLDSMITH 0"  115.00000000000000000000 "NO " 0.00000000000000000000 0.00000000000000000000 1.01999998092645972000 -16.14505310924717920000 1.00000000000000000000      1      9      1      1 55    31.995000  -102.828333 "YES" "Default" "NO " "" "" "" "" "" "" "" "" "" "" "BusbarSection" 0 "" "" "" ""   236.034783
  1091 "RALLS 2 0"    161.00000000000000000000 "NO " 0.00000000000000000000 0.00000000000000000000 1.02483146645147838000 -31.01772502831698470000 1.00000000000000000000      1      9      1      1 56    33.658671  -101.531037 "YES" "Default" "NO " "" "" "" "" "" "" "" "" "" "" "BusbarSection" 0 "" "" "" "" ""
  2001 "PARIS 3 0"    161.00000000000000000000 "NO " 0.00000000000000000000 0.00000000000000000000 1.00175183663875078000 -59.98214702208483120000 1.00000000000000000000      2     11      1      1 57    33.683869   -95.344733 "YES" "Default" "NO " "" "" "" "" "" "" "" "" "" "" "BusbarSection" 0 "" "" "" "" ""
  2002 "SAVOY 0"      500.00000000000000000000 "NO " 0.00000000000000000000 0.00000000000000000000 1.01106096531402256000 -61.56663095110763350000 1.00000000000000000000      2     11      1      1 58    33.628143   -96.367605 "YES" "Default" "NO " "" "" "" "" "" "" "" "" "" "" "BusbarSection" 0 "" "" "" "" ""
  2003 "SAVOY 1"      161.00000000000000000000 "NO " 0.00000000000000000000 0.00000000000000000000 1.00933819533044633000 -63.82854648847412450000 1.00000000000000000000      2     11      1      1 58    33.628143   -96.367605 "YES" "Default" "NO " "" "" "" "" "" "" "" "" "" "" "BusbarSection" 0 "" "" "" "" ""
  2004 "SAVOY 2"      13.80000019073486330000 "NO " 0.00000000000000000000 0.00000000000000000000 1.01106096531402256000 -61.56663095110763350000 1.00000000000000000000      2     11      1      1 58    33.628143   -96.367605 "YES" "Default" "NO " "" "" "" "" "" "" "" "" "" "" "BusbarSection" 0 "" "" "" "" ""
  2005 "SAVOY 3"      13.80000019073486330000 "NO " 0.00000000000000000000 0.00000000000000000000 1.01106096531402256000 -61.56663095110763350000 1.00000000000000000000      2     11      1      1 58    33.628143   -96.367605 "YES" "Default" "NO " "" "" "" "" "" "" "" "" "" "" "BusbarSection" 0 "" "" "" "" ""
  2006 "SAVOY 4"      13.80000019073486330000 "NO " 0.00000000000000000000 0.00000000000000000000 1.01106096531402256000 -61.56663095110763350000 1.00000000000000000000      2     11      1      1 58    33.628143   -96.367605 "YES" "Default" "NO " "" "" "" "" "" "" "" "" "" "" "BusbarSection" 0 "" "" "" "" ""
  2007 "HONEY GROVE 0" 161.00000000000000000000 "NO " 0.00000000000000000000 0.00000000000000000000 1.00250875299214126000 -59.75190170614163070000 1.00000000000000000000      2     11      1      1 59    33.615167   -95.900109 "YES" "Default" "NO " "" "" "" "" "" "" "" "" "" "" "BusbarSection" 0 "" "" "" "" ""
  2008 "MEMPHIS 0"    161.00000000000000000000 "NO " 0.00000000000000000000 0.00000000000000000000 1.01612959694355087000 -32.83300482996789780000 1.00000000000000000000      2     10      1      1 60    34.857258  -100.512868 "YES" "Default" "NO " "" "" "" "" "" "" "" "" "" "" "BusbarSection" 0 "" "" "" "" ""
  2009 "IOWA PARK 0"  161.00000000000000000000 "NO " 0.00000000000000000000 0.00000000000000000000 1.01999998092627142000 -45.21538625206466830000 1.00000000000000000000      2     11      1      1 61    33.973297   -98.721096 "YES" "Default" "NO " "" "" "" "" "" "" "" "" "" "" "BusbarSection" 0 "" "" "" "" ""
  2010 "VERNON 2 0"   161.00000000000000000000 "NO " 0.00000000000000000000 0.00000000000000000000 1.01999998092628763000 -36.40508574276952910000 1.00000000000000000000      2     10      1      1 62    33.899813   -99.773497 "YES" "Default" "NO " "" "" "" "" "" "" "" "" "" "" "BusbarSection" 0 "" "" "" "" ""
  2011 "PANHANDLE 2 0" 500.00000000000000000000 "NO " 0.00000000000000000000 0.00000000000000000000 1.03887029292979438000 -32.10097937348542270000 1.00000000000000000000      2     10      1      1 63    35.238333  -101.310833 "YES" "Default" "NO " "" "" "" "" "" "" "" "" "" "" "BusbarSection" 0 "" "" "" "" ""
  2012 "PANHANDLE 2 1" 161.00000000000000000000 "NO " 0.00000000000000000000 0.00000000000000000000 1.02709729208963774000 -29.86924119060215690000 1.00000000000000000000      2     10      1      1 63    35.238333  -101.310833 "YES" "Default" "NO " "" "" "" "" "" "" "" "" "" "" "BusbarSection" 0 "" "" "" "" ""
  2013 "PANHANDLE 2 2" 18.00000000000000000000 "NO " 0.00000000000000000000 0.00000000000000000000 1.03051019389182130000 -29.76102972311711170000 1.00000000000000000000      2     10      1      1 63    35.238333  -101.310833 "YES" "Default" "NO " "" "" "" "" "" "" "" "" "" "" "BusbarSection" 0 "" "" "" "" ""
  2014 "CHILDRESS 0"  161.00000000000000000000 "NO " 0.00000000000000000000 0.00000000000000000000 1.01448799589756611000 -33.40893511909522570000 1.00000000000000000000      2     10      1      1 64    34.447226  -100.809848 "YES" "Default" "NO " "" "" "" "" "" "" "" "" "" "" "BusbarSection" 0 "" "" "" "" ""
  2015 "FORESTBURG 0" 161.00000000000000000000 "NO " 0.00000000000000000000 0.00000000000000000000 1.00607821180732793000 -63.29278892115956270000 1.00000000000000000000      2     11      1      1 65    33.471617   -97.445189 "YES" "Default" "NO " "" "" "" "" "" "" "" "" "" "" "BusbarSection" 0 "" "" "" "" ""
  2016 "SHERMAN 3 0"  161.00000000000000000000 "NO " 0.00000000000000000000 0.00000000000000000000 1.00601873465698999000 -69.95479493137797530000 1.00000000000000000000      2     11      1      1 66    33.627623   -96.767394 "YES" "Default" "NO " "" "" "" "" "" "" "" "" "" "" "BusbarSection" 0 "" "" "" "" ""
  2017 "PANHANDLE 4 0" 500.00000000000000000000 "NO " 0.00000000000000000000 0.00000000000000000000 1.02839187962410694000 -32.24683001657245280000 1.00000000000000000000      2     10      1      1 67    35.427500  -101.253056 "YES" "Default" "NO " "" "" "" "" "" "" "" "" "" "" "BusbarSection" 0 "" "" "" "" ""
  2018 "PANHANDLE 4 1" 161.00000000000000000000 "NO " 0.00000000000000000000 0.00000000000000000000 1.02649222105641691000 -31.45670874162838970000 1.00000000000000000000      2     10      1      1 67    35.427500  -101.253056 "YES" "Default" "NO " "" "" "" "" "" "" "" "" "" "" "BusbarSection" 0 "" "" "" "" ""
  2019 "PANHANDLE 4 2" 20.00000000000000000000 "NO " 0.00000000000000000000 0.00000000000000000000 1.02839187962410694000 -32.24683001657245280000 1.00000000000000000000      2     10      1      1 67    35.427500  -101.253056 "YES" "Default" "NO " "" "" "" "" "" "" "" "" "" "" "BusbarSection" 0 "" "" "" "" ""
  2020 "WICHITA FALLS 6 0" 161.00000000000000000000 "NO " 0.00000000000000000000 0.00000000000000000000 0.99517489943880344000 -44.88538309477281270000 1.00000000000000000000      2     11      1      1 68    33.943784   -98.523064 "YES" "Default" "NO " "" "" "" "" "" "" "" "" "" "" "BusbarSection" 0 "" "" "" "" ""
  2021 "PARIS 2 0"    500.00000000000000000000 "NO " 0.00000000000000000000 0.00000000000000000000 1.01387326681714596000 -56.70236903605631800000 1.00000000000000000000      2     11      1      1 69    33.696800   -95.557700 "YES" "Default" "NO " "" "" "" "" "" "" "" "" "" "" "BusbarSection" 0 "" "" "" "" ""
  2022 "PARIS 2 1"    161.00000000000000000000 "NO " 0.00000000000000000000 0.00000000000000000000 1.01001015326693055000 -58.63754632687140860000 1.00000000000000000000      2     11      1      1 69    33.696800   -95.557700 "YES" "Default" "NO " "" "" "" "" "" "" "" "" "" "" "BusbarSection" 0 "" "" "" "" ""
  2023 "PARIS 2 2"    13.80000019073486330000 "NO " 0.00000000000000000000 0.00000000000000000000 1.01999998092643773000 -55.13952008791977730000 1.00000000000000000000      2     11      1      1 69    33.696800   -95.557700 "YES" "Default" "NO " "" "" "" "" "" "" "" "" "" "" "BusbarSection" 0 "" "" "" "" ""
  2024 "PARIS 2 3"    13.80000019073486330000 "NO " 0.00000000000000000000 0.00000000000000000000 1.01999998092646305000 -54.47407300217227540000 1.00000000000000000000      2     11      1      1 69    33.696800   -95.557700 "YES" "Default" "NO " "" "" "" "" "" "" "" "" "" "" "BusbarSection" 0 "" "" "" "" ""
  2025 "WICHITA FALLS 4 0" 161.00000000000000000000 "NO " 0.00000000000000000000 0.00000000000000000000 0.99407401808309170400 -44.12413551431147600000 1.00000000000000000000      2     11      1      1 70    33.864515   -98.491046 "YES" "Default" "NO " "" "" "" "" "" "" "" "" "" "" "BusbarSection" 0 "" "" "" "" ""
  2026 "WHEELER 0"    161.00000000000000000000 "NO " 0.00000000000000000000 0.00000000000000000000 1.02648048884666498000 -31.08149308618541080000 1.00000000000000000000      2     10      1      1 71    35.830763  -100.765905 "YES" "Default" "NO " "" "" "" "" "" "" "" "" "" "" "BusbarSection" 0 "" "" "" "" ""
...